% This is the RIPE Database query service.
% The objects are in RPSL format.
%
% The RIPE Database is subject to Terms and Conditions.
% See https://docs.db.ripe.net/terms-conditions.html

% Note: this output has been filtered.
%       To receive output for a database update, use the "-B" flag.

% Information related to 'AS3209 - AS3353'

as-block:       AS3209 - AS3353
descr:          RIPE NCC ASN block
remarks:        These AS Numbers are assigned to network operators in the RIPE NCC service region.
mnt-by:         RIPE-NCC-HM-MNT
created:        2018-11-22T15:27:19Z
last-modified:  2018-11-22T15:27:19Z
source:         RIPE

% Information related to 'AS3212'

% Abuse contact for 'AS3212' is 'abuse@telemach.si'

aut-num:        AS3212
as-name:        TELEMACH
descr:          Broadband Access & Carrier Services
descr:          http://www.telemach.si
org:            ORG-Td4-RIPE
remarks:
remarks:        AS1120 --- VIX-Service-AS / Route-Collector
import:         from AS1120 193.203.0.25 accept AS1120
export:         to AS1120 193.203.0.25 announce AS3212:AS-TELEMACH
remarks:
remarks:        AS1121 --- VIX-Route-Server-1-UniVie
import:         from AS1121 193.203.0.251 accept ANY
export:         to AS1121 193.203.0.251 announce AS3212:AS-TELEMACH
remarks:
remarks:        AS1121 --- VIX-Route-Server-2-IX
import:         from AS1121 193.203.0.252 accept ANY
export:         to AS1121 193.203.0.252 announce AS3212:AS-TELEMACH
remarks:
remarks:        AS1764 --- Nextlayer
import:         from AS1764 193.203.0.121 accept AS-NEXTLAYER
export:         to AS1764 193.203.0.121 announce AS3212:AS-TELEMACH
remarks:
remarks:        AS1853 --- ACOnet
import:         from AS1853 193.203.0.1 accept AS-ACONETTOVIX
export:         to AS1853 193.203.0.1 announce AS3212:AS-TELEMACH
import:         from AS1853 193.203.0.2 accept AS-ACONETTOVIX
export:         to AS1853 193.203.0.2 announce AS3212:AS-TELEMACH
remarks:
remarks:        AS2107 --- ARNES
import:         from AS2107 193.2.141.33 accept AS2107
export:         to AS2107 193.2.141.33 announce AS3212:AS-TELEMACH
remarks:
remarks:        AS3209 --- ARCOR AG.
import:         from AS3209 193.203.0.102 accept AS-ARCORGLOBAL
export:         to AS3209 193.203.0.102 announce AS3212:AS-TELEMACH
remarks:
remarks:        AS3248 --- Silver Server
import:         from AS3248 193.203.0.109 accept AS-SILAT
export:         to AS3248 193.203.0.109 announce AS3212:AS-TELEMACH
remarks:
remarks:        AS5403 --- APA-IT
import:         from AS5403 193.203.0.5 accept AS-APA
export:         to AS5403 193.203.0.5 announce AS3212:AS-TELEMACH
import:         from AS5403 193.203.0.15 accept AS-APA
export:         to AS5403 193.203.0.15 announce AS3212:AS-TELEMACH
remarks:
remarks:        AS5588 --- GTS Central Europe
import:         from AS5588 193.203.0.101 accept AS-GTS-CE
export:         to AS5588 193.203.0.101 announce AS3212:AS-TELEMACH
remarks:
remarks:        AS6720 --- MAGWIEN
import:         from AS6720 193.203.0.58 accept AS-MAGWIEN
export:         to AS6720 193.203.0.58 announce AS3212:AS-TELEMACH
import:         from AS6720 193.203.0.63 accept AS-MAGWIEN
export:         to AS6720 193.203.0.63 announce AS3212:AS-TELEMACH
remarks:
remarks:        AS6830 --- UPC Broadband
import:         from AS6830 193.203.0.8 accept AS-AORTA
export:         to AS6830 193.203.0.8 announce AS3212:AS-TELEMACH
import:         from AS6830 193.203.0.23 accept AS-AORTA
export:         to AS6830 193.203.0.23 announce AS3212:AS-TELEMACH
remarks:
remarks:        AS6939 --- Hurricane Electric
import:         from AS6939 193.203.0.185 accept AS-HURRICANE
export:         to AS6939 193.203.0.185 announce AS3212:AS-TELEMACH
remarks:
remarks:        AS8339 --- Kabelsignal AG
import:         from AS8339 193.203.0.10 accept AS-KABS
export:         to AS8339 193.203.0.10 announce AS3212:AS-TELEMACH
import:         from AS8339 193.203.0.18 accept AS-KABS
export:         to AS8339 193.203.0.18 announce AS3212:AS-TELEMACH
remarks:
remarks:        AS8387 --- T-Systems Austria
import:         from AS8387 193.203.0.26 accept AS8387
export:         to AS8387 193.203.0.26 announce AS3212:AS-TELEMACH
remarks:
remarks:        AS8412 --- T-Mobile
import:         from AS8412 193.203.0.84 accept AS8412
export:         to AS8412 193.203.0.84 announce AS3212:AS-TELEMACH
remarks:
remarks:        AS8445 --- SALZBURG AG
import:         from AS8445 193.203.0.29 accept AS8445
export:         to AS8445 193.203.0.29 announce AS3212:AS-TELEMACH
remarks:
remarks:        AS8928 --- Interoute Communications
import:         from AS8928 193.203.0.106 accept AS-INTEROUTE
export:         to AS8928 193.203.0.106 announce AS3212:AS-TELEMACH
remarks:
remarks:        AS12577 --- MMC KEG
import:         from AS12577 193.203.0.86 accept AS12577
export:         to AS12577 193.203.0.86 announce AS3212:AS-TELEMACH
remarks:
remarks:        AS12605 --- LIWEST Kabelmedien
import:         from AS12605 193.203.0.43 accept AS-LIWESTAT
export:         to AS12605 193.203.0.43 announce AS3212:AS-TELEMACH
remarks:
remarks:        AS12971 --- BIOS Internet
import:         from AS12971 193.203.0.54 accept AS-BIOSTOVIX
export:         to AS12971 193.203.0.54 announce AS3212:AS-TELEMACH
remarks:
remarks:        AS13030 --- Init Seven
import:         from AS13030 193.203.0.99 accept AS-INIT7
export:         to AS13030 193.203.0.99 announce AS3212:AS-TELEMACH
import:         from AS13030 195.69.144.210 accept AS-INIT7
export:         to AS13030 195.69.144.210 announce AS3212:AS-TELEMACH
remarks:
remarks:        AS13101 --- TNG, The NET Generation
import:         from AS13101 193.203.0.111 accept AS-TNG
export:         to AS13101 193.203.0.111 announce AS3212:AS-TELEMACH
remarks:
remarks:        AS13237 --- Lambdanet Communications
import:         from AS13237 193.203.0.91 accept AS-LAMBDANET
export:         to AS13237 193.203.0.91 announce AS3212:AS-TELEMACH
remarks:
remarks:        AS15498 --- CPSnet
import:         from AS15498 193.203.0.75 accept AS-CPSON2VIX
export:         to AS15498 193.203.0.75 announce AS3212:AS-TELEMACH
remarks:
remarks:        AS20704 --- Funknetz
import:         from AS20704 193.203.0.80 accept AS-FUNKNETZ
export:         to AS20704 193.203.0.80 announce AS3212:AS-TELEMACH
remarks:
remarks:        AS20751 --- Carrier66 Communications
import:         from AS20751 193.203.0.81 accept AS-MAX4EU
export:         to AS20751 193.203.0.81 announce AS3212:AS-TELEMACH
remarks:
remarks:        AS21360 --- Empirion Telekommunikations
import:         from AS21360 193.203.0.87 accept AS-EMPIRION
export:         to AS21360 193.203.0.87 announce AS3212:AS-TELEMACH
remarks:
remarks:        AS24747 --- In.Life
import:         from AS24747 213.161.1.142 accept AS24747
export:         to AS24747 213.161.1.142 announce ANY
remarks:
remarks:        AS24953 --- Carrier66 Communications
import:         from AS24953 193.203.0.104 accept AS-CARRIER66
export:         to AS24953 193.203.0.104 announce AS3212:AS-TELEMACH
remarks:
remarks:        AS24992 --- DIC Online
import:         from AS24992 193.203.0.98 accept AS24992
export:         to AS24992 193.203.0.98 announce AS3212:AS-TELEMACH
remarks:
remarks:        AS25017 --- Probanka d.d.
import:         from AS25017 213.161.11.46 accept AS25017
export:         to AS25017 213.161.11.46 announce AS3212:AS-TELEMACH {0.0.0.0/0}
remarks:
remarks:        AS25575 --- Domaintechnik
import:         from AS25575 193.203.0.95 accept AS-DOMAINTECHNIK
export:         to AS25575 193.203.0.95 announce AS3212:AS-TELEMACH
remarks:
remarks:        AS6939 --- Hurricane Electric (HE)
import:         from AS6939 216.66.82.73 accept ANY
export:         to AS6939 216.66.82.73 announce AS3212:AS-TELEMACH
remarks:
remarks:        AS28682 --- Post of Slovenia d.o.o.
import:         from AS28682 213.161.1.54 accept AS28682
export:         to AS28682 213.161.1.54 announce ANY
remarks:
remarks:        AS28760 --- Infotech
import:         from AS28760 193.203.0.115 accept AS28760
export:         to AS28760 193.203.0.115 announce AS3212:AS-TELEMACH
remarks:
remarks:        AS29287 --- Wienstrom
import:         from AS29287 193.203.0.133 accept AS29287
export:         to AS29287 193.203.0.133 announce AS3212:AS-TELEMACH
remarks:
remarks:        AS31042 --- Serbian Broadband
import:         from AS31042 accept ANY
export:         to AS31042 announce AS3212:AS-TELEMACH
remarks:
remarks:        AS31060 --- DOBA
import:         from AS31060 213.161.1.66 accept AS31060
export:         to AS31060 213.161.1.66 announce AS3212:AS-TELEMACH {0.0.0.0/0}
remarks:
remarks:        AS34347 --- Citynet@Hall
import:         from AS34347 193.203.0.124 accept AS-CNHAT
export:         to AS34347 193.203.0.124 announce AS3212:AS-TELEMACH
remarks:
remarks:        AS34367 --- BSI
import:         from AS34367 213.143.77.114 accept AS34367
export:         to AS34367 213.143.77.114 announce AS3212:AS-TELEMACH {0.0.0.0/0}
remarks:
remarks:        AS39320 --- ACTUAL I.T D.D Koper
import:         from AS39320 94.140.71.138 accept AS39320
export:         to AS39320 94.140.71.138 announce AS3212:AS-TELEMACH {0.0.0.0/0}
remarks:
remarks:        AS42560 --- Telemach BIH
import:         from AS42560 213.161.1.150 accept AS-TELEMACH-BH
export:         to AS42560 213.161.1.150 announce ANY
import:         from AS42560 213.161.1.170 accept AS-TELEMACH-BH
export:         to AS42560 213.161.1.170 announce ANY
remarks:
remarks:        AS42613 --- Elektro Turnsek Celje
import:         from AS42613 213.161.1.194 accept AS-TURNSEK
export:         to AS42613 213.161.1.194 announce ANY
remarks:
remarks:        AS43128 --- Domenca
import:         from AS43128 213.143.80.138 accept AS43128
export:         to AS43128 213.143.80.138 announce AS3212:AS-TELEMACH {0.0.0.0/0}
remarks:
remarks:        AS44647 --- ARIO
import:         from AS44647 accept AS-ARIO
export:         to AS44647 announce AS3212:AS-TELEMACH
remarks:
remarks:        AS48653 --- Slovenske zeleznice
import:         from AS48653 accept AS48653
export:         to AS48653 announce AS3212:AS-TELEMACH {0.0.0.0/0}
remarks:
remarks:        AS56513 --- Optisis d.o.o.
import:         from AS56513 213.161.1.166 accept AS56513
export:         to AS56513 213.161.1.166 announce ANY
remarks:
remarks:        AS56635 --- Xenya
import:         from AS56635 accept AS56635
export:         to AS56635 announce AS3212:AS-TELEMACH
import:         from AS56635 accept AS-XENYA
mp-import:      afi ipv6.unicast from AS56635 accept AS56635
mp-import:      afi ipv6.unicast from AS56635 accept AS-XENYA6
mp-export:      afi ipv6.unicast to AS56635 announce AS3212:AS-TELEMACH6
remarks:
remarks:        AS41828 --- Telemach Hosting
import:         from AS41828 accept AS-TUSMOBIL
export:         to AS41828 announce AS3212:AS-TELEMACH {0.0.0.0/0}
mp-import:      afi ipv6.unicast from AS41828 accept AS-TUSMOBIL
mp-export:      afi ipv6.unicast to AS41828 announce AS3212:AS-TELEMACH6
remarks:
remarks:        AS56993 --- KZPS
import:         from AS56993 213.143.77.146 accept AS56993
export:         to AS56993 213.143.77.146 announce AS3212:AS-TELEMACH {0.0.0.0/0}
import:         from AS56993 213.143.66.238 accept AS56993
export:         to AS56993 213.143.66.238 announce AS3212:AS-TELEMACH {0.0.0.0/0}
mp-import:      afi ipv6.unicast from AS56993 accept AS56993
mp-export:      afi ipv6.unicast to AS56993 announce AS3212:AS-TELEMACH6
remarks:
remarks:        AS57554 --- Zavarovalnica Maribor d.d.
import:         from AS57554 213.161.1.6 accept AS57554
export:         to AS57554 213.161.1.6 announce AS3212:AS-TELEMACH {0.0.0.0/0}
remarks:
remarks:        AS57623 --- AGENDA d.o.o.
import:         from AS57623 213.161.1.42 accept AS57623
export:         to AS57623 213.161.1.42 announce AS3212:AS-TELEMACH {0.0.0.0/0}
remarks:
remarks:        AS196846 --- ELKA TV
import:         from AS196846 213.161.1.106 accept AS196846
export:         to AS196846 213.161.1.106 announce AS3212:AS-TELEMACH {0.0.0.0/0}
remarks:
remarks:        AS196895 --- UJP
import:         from AS196895 94.140.77.74 accept AS196895
export:         to AS196895 94.140.77.74 announce AS3212:AS-TELEMACH {0.0.0.0/0}
remarks:
remarks:        AS197045 --- Alternet/Avision, Obala 114, Portoroz
import:         from AS197045 31.15.132.18 accept AS197045
export:         to AS197045 31.15.132.18 announce AS3212:AS-TELEMACH {0.0.0.0/0}
remarks:
remarks:        AS57517 --- MNZ
import:         from AS57517 217.72.79.98 accept AS57517
export:         to AS57517 217.72.79.98 announce AS3212:AS-TELEMACH {0.0.0.0/0}
remarks:
remarks:        AS202840 --- Elmitel
import:         from AS202840 accept AS202840
export:         to AS202840 announce ANY
remarks:
remarks:        AS58056 --- KRS
import:         from AS58056 accept AS58056
export:         to AS58056 announce ANY
remarks:
remarks:        AS197944 --- VIRTUA
import:         from AS197944 accept AS197944
export:         to AS197944 announce ANY
mp-import:      afi ipv6.unicast from AS197944 accept ANY
mp-export:      afi ipv6.unicast to AS197944 announce AS3212:AS-TELEMACH6
remarks:
remarks:        AS39727 --- ZZI
import:         from AS39727 accept AS39727
export:         to AS39727 announce ANY
remarks:
remarks:        AS197536 --- Kovintrade
import:         from AS197536 accept AS197536
export:         to AS197536 announce ANY
remarks:
remarks:        AS43663 --- Maksim
import:         from AS43663 accept AS43663
export:         to AS43663 announce ANY
remarks:
remarks:        AS25066 --- NKBM
import:         from AS25066 accept AS25066
export:         to AS25066 announce ANY
remarks:
remarks:        AS205714 --- Telemach Croatia
import:         from AS205714 accept AS205714
export:         to AS205714 announce AS3212:AS-TELEMACH {0.0.0.0/0}
remarks:
remarks:        AS198827 --- Elektro Gorenjska
import:         from AS198827 accept AS198827
export:         to AS198827 announce AS3212:AS-TELEMACH
mp-import:      afi ipv6.unicast from AS198827 accept ANY
mp-export:      afi ipv6.unicast to AS198827 announce AS3212:AS-TELEMACH6
remarks:
remarks:        AS61067 --- Solford Trading Limited
import:         from AS61067 accept AS61067
export:         to AS61067 announce AS3212:AS-TELEMACH
mp-import:      afi ipv6.unicast from AS61067 accept ANY
mp-export:      afi ipv6.unicast to AS61067 announce AS3212:AS-TELEMACH6
remarks:
remarks:        AS200440 --- OnlineCasino Deutschland AG
import:         from AS200440 accept AS200440
export:         to AS200440 announce AS3212:AS-TELEMACH
mp-import:      afi ipv6.unicast from AS200440 accept ANY
mp-export:      afi ipv6.unicast to AS200440 announce AS3212:AS-TELEMACH6
remarks:
remarks:        AS15889 --- SRC
import:         from AS15889 accept AS15889
export:         to AS15889 announce AS3212:AS-TELEMACH
mp-import:      afi ipv6.unicast from AS15889 accept ANY
mp-export:      afi ipv6.unicast to AS15889 announce AS3212:AS-TELEMACH6
remarks:
remarks:        AS41970 --- ZPIZ
import:         from AS41970 accept AS41970
export:         to AS41970 announce AS3212:AS-TELEMACH {0.0.0.0/0}
remarks:
remarks:        AS204771 --- Sinergise
import:         from AS204771 accept AS204771
export:         to AS204771 announce AS3212:AS-TELEMACH {0.0.0.0/0}
remarks:
remarks:        AS212597 --- Mariborska Livarna
import:         from AS212597 accept AS212597
export:         to AS212597 announce AS3212:AS-TELEMACH {0.0.0.0/0}
remarks:
remarks:        AS64465 --- Comtron
import:         from AS64465 accept AS64465
export:         to AS64465 announce AS3212:AS-TELEMACH
mp-import:      afi ipv6.unicast from AS64465 accept ANY
mp-export:      afi ipv6.unicast to AS64465 announce AS3212:AS-TELEMACH6
remarks:
remarks:        AS198524 --- iLOL
import:         from AS198524 accept AS198524
export:         to AS198524 announce AS3212:AS-TELEMACH
mp-import:      afi ipv6.unicast from AS198524 accept ANY
mp-export:      afi ipv6.unicast to AS198524 announce AS3212:AS-TELEMACH6
remarks:
remarks:        AS51790 --- SIEL
import:         from AS51790 accept AS51790
export:         to AS51790 announce AS3212:AS-TELEMACH
mp-import:      afi ipv6.unicast from AS51790 accept ANY
mp-export:      afi ipv6.unicast to AS51790 announce AS3212:AS-TELEMACH6
remarks:
remarks:        AS205405 --- KEMOFARMACIJA
import:         from AS205405 accept AS205405
export:         to AS205405 announce AS3212:AS-TELEMACH
mp-import:      afi ipv6.unicast from AS205405 accept ANY
mp-export:      afi ipv6.unicast to AS205405 announce AS3212:AS-TELEMACH6
remarks:
remarks:        AS207318 --- Flycom
import:         from AS207318 accept AS207318
export:         to AS207318 announce AS3212:AS-TELEMACH
mp-import:      afi ipv6.unicast from AS207318 accept ANY
mp-export:      afi ipv6.unicast to AS207318 announce AS3212:AS-TELEMACH6
remarks:
remarks:        AS49593 --- Alpina
import:         from AS49593 accept AS49593
export:         to AS49593 announce AS3212:AS-TELEMACH
remarks:
remarks:        AS25467 --- AKTON
import:         from AS25467 accept AS25467
export:         to AS25467 announce AS3212:AS-TELEMACH
mp-import:      afi ipv6.unicast from AS25467 accept ANY
mp-export:      afi ipv6.unicast to AS25467 announce AS3212:AS-TELEMACH6
remarks:
remarks:        AS56651 --- Javno podjetje uradni list Republike Slovenije d.o.o.
import:         from AS56651 accept AS56651
export:         to AS56651 announce AS3212:AS-TELEMACH
mp-import:      afi ipv6.unicast from AS56651 accept ANY
mp-export:      afi ipv6.unicast to AS56651 announce AS3212:AS-TELEMACH6
remarks:
remarks:        AS51859 --- Mainstream
import:         from AS49725 accept AS49725
export:         to AS49725 announce AS3212:AS-TELEMACH
mp-import:      afi ipv6.unicast from AS49725 accept ANY
mp-export:      afi ipv6.unicast to AS49725 announce AS3212:AS-TELEMACH6
remarks:
remarks:        AS49725 --- Nakom
import:         from AS51859 accept AS51859
export:         to AS51859 announce AS3212:AS-TELEMACH
mp-import:      afi ipv6.unicast from AS51859 accept ANY
mp-export:      afi ipv6.unicast to AS51859 announce AS3212:AS-TELEMACH6
remarks:
remarks:        AS44073 --- ZD-LJ
import:         from AS44073 accept AS44073
export:         to AS44073 announce AS3212:AS-TELEMACH
mp-import:      afi ipv6.unicast from AS44073 accept ANY
mp-export:      afi ipv6.unicast to AS44073 announce AS3212:AS-TELEMACH6
remarks:
remarks:        AS201905 --- DSPOT
import:         from AS201905 accept AS201905
export:         to AS201905 announce AS3212:AS-TELEMACH
mp-import:      afi ipv6.unicast from AS201905 accept ANY
mp-export:      afi ipv6.unicast to AS201905 announce AS3212:AS-TELEMACH6
remarks:
remarks:        AS196895 --- Ministrstvo za finance UJP
import:         from AS196895 accept AS196895
export:         to AS196895 announce AS3212:AS-TELEMACH
mp-import:      afi ipv6.unicast from AS196895 accept ANY
mp-export:      afi ipv6.unicast to AS196895 announce AS3212:AS-TELEMACH6
remarks:
remarks:
remarks:        AS209411 --- Novatel
import:         from AS209411 accept AS209411
export:         to AS209411 announce AS3212:AS-TELEMACH
remarks:
remarks:        AS44730 --- Vzajemna
import:         from AS44730 accept AS44730
export:         to AS44730 announce AS3212:AS-TELEMACH
remarks:
remarks:        AS202137 --- MORS
import:         from AS202137 accept AS202137
export:         to AS202137 announce AS3212:AS-TELEMACH
remarks:
remarks:        AS34024 --- Infohit Computers
import:         from AS34024 accept AS34024
export:         to AS34024 announce AS3212:AS-TELEMACH
remarks:
remarks:        AS213306 --- Comtrade
import:         from AS213306 accept AS213306
export:         to AS213306 announce AS3212:AS-TELEMACH
remarks:
remarks:        AS29051 --- Eles
import:         from AS29051 accept AS29051
export:         to AS29051 announce AS3212:AS-TELEMACH
mp-import:      afi ipv6.unicast from AS29051 accept ANY
mp-export:      afi ipv6.unicast to AS29051 announce AS3212:AS-TELEMACH6
remarks:
remarks:
remarks:        AS207746 --- A1
import:         from AS207746 accept AS207746
export:         to AS207746 announce AS3212:AS-TELEMACH
mp-import:      afi ipv6.unicast from AS207746 accept ANY
mp-export:      afi ipv6.unicast to AS207746 announce AS3212:AS-TELEMACH6
remarks:
remarks:
remarks:        AS21215 --- UGNI
import:         from AS21215 accept ANY
export:         to AS21215 announce AS3212:AS-TELEMACH
import:         from AS21215 accept ANY
mp-import:      afi ipv6.unicast from AS21215 accept ANY
mp-export:      afi ipv6.unicast to AS21215 announce AS3212:AS-TELEMACH6
remarks:
remarks:
remarks:        -------------------------------------------------------
remarks:        Transits IPv6
remarks:        -------------------------------------------------------
remarks:
remarks:        AS6939 --- Hurricane Electric IPv6
mp-import:      afi ipv6.unicast from AS6939 accept ANY
mp-export:      afi ipv6.unicast to AS6939 announce AS3212:AS-TELEMACH6
remarks:
remarks:
remarks:        AS31042 --- SBB IPv6
mp-import:      afi ipv6.unicast from AS31042 accept ANY
mp-export:      afi ipv6.unicast to AS31042 announce AS3212:AS-TELEMACH6
remarks:
remarks:
remarks:        AS205714 --- Telemach Croatia IPv6
mp-import:      afi ipv6.unicast from AS205714 accept ANY
mp-export:      afi ipv6.unicast to AS205714 announce AS3212:AS-TELEMACH6
admin-c:        TRTB1-RIPE
tech-c:         TRTB1-RIPE
status:         ASSIGNED
mnt-by:         RIPE-NCC-END-MNT
mnt-by:         TELEMACH-MNT
created:        1970-01-01T00:00:00Z
last-modified:  2025-08-18T08:41:37Z
source:         RIPE

organisation:   ORG-Td4-RIPE
org-name:       Telemach Slovenija d.o.o.
country:        SI
org-type:       LIR
address:        Brnciceva 49A
address:        1231
address:        Ljubljana-Crnuce
address:        SLOVENIA
phone:          +386 59 188 600
fax-no:         +386 1 51 88 601
admin-c:        TRTB1-RIPE
tech-c:         TRTB1-RIPE
abuse-c:        TRTB1-RIPE
mnt-ref:        RIPE-NCC-HM-MNT
mnt-ref:        TELEMACH-MNT
mnt-by:         RIPE-NCC-HM-MNT
mnt-by:         TELEMACH-MNT
created:        2004-04-17T12:05:42Z
last-modified:  2023-08-31T06:30:25Z
source:         RIPE # Filtered

role:           Telemach RIPE Team BBN
address:        Telemach d.o.o.
address:        Brnciceva ulica 49A
address:        SI-1231 Ljubljana-Crnuce
address:        Slovenia
phone:          +386 591 88600
admin-c:        AR1264-RIPE
tech-c:         MS10243-RIPE
tech-c:         GN1562-RIPE
tech-c:         JL12686-RIPE
nic-hdl:        TRTB1-RIPE
mnt-by:         TELEMACH-MNT
created:        2009-09-25T09:49:27Z
last-modified:  2020-12-03T16:43:17Z
source:         RIPE # Filtered
abuse-mailbox:  abuse@telemach.si

% This query was served by the RIPE Database Query Service version 1.118.1 (ABERDEEN)



route:          31.15.128.0/17
descr:          TELEMACH, Provider Aggregated Block
remarks:        ===========================================================
remarks:        TELEMACH - Network Operation Center
remarks:
remarks:        mail:  noc@telemach.net
remarks:        phone: +386 1 51 88 600 or 51 88 630
remarks:        fax:   +386 1 51 88 601
remarks:
remarks:        Please send abuse & spam notification to abuse@telemach.net
remarks:        ===========================================================
origin:         AS3212
mnt-by:         TELEMACH-MNT
created:        2015-12-31T08:48:51Z
last-modified:  2018-01-17T12:58:07Z
source:         RIPE
remarks:        ****************************
remarks:        * THIS OBJECT IS MODIFIED
remarks:        * Please note that all data that is generally regarded as personal
remarks:        * data has been removed from this object.
remarks:        * To view the original object, please query the RIPE Database at:
remarks:        * http://www.ripe.net/whois
remarks:        ****************************
rpki-ov-state:  valid

route:          46.150.32.0/19
descr:          TELEMACH, Provider Aggregated Block
remarks:        ===========================================================
remarks:        TELEMACH - Network Operation Center
remarks:
remarks:        mail:  noc@telemach.net
remarks:        phone: +386 1 51 88 600 or 51 88 630
remarks:        fax:   +386 1 51 88 601
remarks:
remarks:        Please send abuse & spam notification to abuse@telemach.net
remarks:        ===========================================================
origin:         AS3212
mnt-by:         TELEMACH-MNT
notify:         ripe@telemach.net
created:        2018-01-16T13:03:47Z
last-modified:  2018-01-16T13:03:47Z
source:         RIPE
remarks:        ****************************
remarks:        * THIS OBJECT IS MODIFIED
remarks:        * Please note that all data that is generally regarded as personal
remarks:        * data has been removed from this object.
remarks:        * To view the original object, please query the RIPE Database at:
remarks:        * http://www.ripe.net/whois
remarks:        ****************************
rpki-ov-state:  valid

route:          46.182.224.0/21
descr:          TELEMACH, Provider Aggregated Block
remarks:        ===========================================================
remarks:        TELEMACH - Network Operation Center
remarks:
remarks:        mail: noc@telemach.net
remarks:        phone: +386 1 51 88 600 or 51 88 630
remarks:        fax: +386 1 51 88 601
remarks:
remarks:        Please send abuse & spam notification to abuse@telemach.net
remarks:        ===========================================================
origin:         AS3212
mnt-routes:     TELEMACH-MNT
mnt-by:         TELEMACH-MNT
notify:         ripe@telemach.net
created:        2016-03-01T07:33:48Z
last-modified:  2018-01-15T13:41:52Z
source:         RIPE
remarks:        ****************************
remarks:        * THIS OBJECT IS MODIFIED
remarks:        * Please note that all data that is generally regarded as personal
remarks:        * data has been removed from this object.
remarks:        * To view the original object, please query the RIPE Database at:
remarks:        * http://www.ripe.net/whois
remarks:        ****************************
rpki-ov-state:  valid

route:          77.38.0.0/17
descr:          TELEMACH, Provider Aggregated Block
remarks:        ===========================================================
remarks:        TELEMACH - Network Operation Center
remarks:
remarks:        mail: noc@telemach.net
remarks:        phone: +386 1 51 88 600 or 51 88 630
remarks:        fax: +386 1 51 88 601
remarks:
remarks:        Please send abuse & spam notification to abuse@telemach.net
remarks:        ===========================================================
origin:         AS3212
notify:         ripe@telemach.net
mnt-routes:     TELEMACH-MNT
mnt-by:         TELEMACH-MNT
created:        2017-03-23T14:58:18Z
last-modified:  2018-01-15T13:30:51Z
source:         RIPE
remarks:        ****************************
remarks:        * THIS OBJECT IS MODIFIED
remarks:        * Please note that all data that is generally regarded as personal
remarks:        * data has been removed from this object.
remarks:        * To view the original object, please query the RIPE Database at:
remarks:        * http://www.ripe.net/whois
remarks:        ****************************
rpki-ov-state:  valid

route:          77.73.104.0/22
descr:          TELEMACH, Provider Aggregated Block
remarks:        ===========================================================
remarks:        TELEMACH - Network Operation Center
remarks:
remarks:        mail: noc@telemach.net
remarks:        phone: +386 1 51 88 600 or 51 88 630
remarks:        fax: +386 1 51 88 601
remarks:
remarks:        Please send abuse & spam notification to abuse@telemach.net
remarks:        ===========================================================
origin:         AS3212
mnt-by:         TELEMACH-MNT
created:        2022-02-28T12:49:36Z
last-modified:  2022-02-28T13:09:04Z
source:         RIPE
remarks:        ****************************
remarks:        * THIS OBJECT IS MODIFIED
remarks:        * Please note that all data that is generally regarded as personal
remarks:        * data has been removed from this object.
remarks:        * To view the original object, please query the RIPE Database at:
remarks:        * http://www.ripe.net/whois
remarks:        ****************************
rpki-ov-state:  valid

route:          77.111.0.0/18
descr:          TELEMACH, Provider Aggregated Block
remarks:        ===========================================================
remarks:        TELEMACH - Network Operation Center
remarks:
remarks:        mail:  noc@telemach.net
remarks:        phone: +386 1 51 88 600 or 51 88 630
remarks:        fax:   +386 1 51 88 601
remarks:
remarks:        Please send abuse & spam notification to abuse@telemach.net
remarks:        ===========================================================
origin:         AS3212
notify:         ripe@telemach.net
mnt-by:         TELEMACH-MNT
created:        2015-10-19T07:32:25Z
last-modified:  2018-01-16T06:37:12Z
source:         RIPE
remarks:        ****************************
remarks:        * THIS OBJECT IS MODIFIED
remarks:        * Please note that all data that is generally regarded as personal
remarks:        * data has been removed from this object.
remarks:        * To view the original object, please query the RIPE Database at:
remarks:        * http://www.ripe.net/whois
remarks:        ****************************
rpki-ov-state:  valid

route:          78.153.32.0/19
descr:          TELEMACH, Provider Aggregated Block
remarks:        ===========================================================
remarks:        TELEMACH - Network Operation Center
remarks:
remarks:        mail:  noc@telemach.net
remarks:        phone: +386 1 51 88 600 or 51 88 630
remarks:        fax:   +386 1 51 88 601
remarks:
remarks:        Please send abuse & spam notification to abuse@telemach.net
remarks:        ===========================================================
origin:         AS3212
mnt-by:         TELEMACH-MNT
notify:         ripe@telemach.net
created:        2015-12-31T08:44:48Z
last-modified:  2018-01-16T08:23:51Z
source:         RIPE
remarks:        ****************************
remarks:        * THIS OBJECT IS MODIFIED
remarks:        * Please note that all data that is generally regarded as personal
remarks:        * data has been removed from this object.
remarks:        * To view the original object, please query the RIPE Database at:
remarks:        * http://www.ripe.net/whois
remarks:        ****************************
rpki-ov-state:  valid

route:          82.149.0.0/19
descr:          TELEMACH, Provider Aggregated Block
remarks:        ===========================================================
remarks:        TELEMACH - Network Operation Center
remarks:
remarks:        mail: noc@telemach.net
remarks:        phone: +386 1 51 88 600 or 51 88 630
remarks:        fax: +386 1 51 88 601
remarks:
remarks:        Please send abuse & spam notification to abuse@telemach.net
remarks:        ===========================================================
origin:         AS3212
mnt-routes:     TELEMACH-MNT
mnt-by:         TELEMACH-MNT
created:        2004-06-28T08:53:26Z
last-modified:  2018-01-12T06:39:40Z
source:         RIPE
remarks:        ****************************
remarks:        * THIS OBJECT IS MODIFIED
remarks:        * Please note that all data that is generally regarded as personal
remarks:        * data has been removed from this object.
remarks:        * To view the original object, please query the RIPE Database at:
remarks:        * http://www.ripe.net/whois
remarks:        ****************************
rpki-ov-state:  valid

route:          82.192.32.0/19
descr:          TELEMACH, Provider Aggregated Block
remarks:        ===========================================================
remarks:        TELEMACH - Network Operation Center
remarks:
remarks:        mail:  noc@telemach.net
remarks:        phone: +386 1 51 88 600 or 51 88 630
remarks:        fax:   +386 1 51 88 601
remarks:
remarks:        Please send abuse & spam notification to abuse@telemach.net
remarks:        ===========================================================
origin:         AS3212
mnt-by:         TELEMACH-MNT
notify:         ripe@telemach.net
created:        2015-12-31T08:37:03Z
last-modified:  2018-01-16T08:47:15Z
source:         RIPE
remarks:        ****************************
remarks:        * THIS OBJECT IS MODIFIED
remarks:        * Please note that all data that is generally regarded as personal
remarks:        * data has been removed from this object.
remarks:        * To view the original object, please query the RIPE Database at:
remarks:        * http://www.ripe.net/whois
remarks:        ****************************
rpki-ov-state:  valid

route:          84.20.224.0/19
descr:          TELEMACH, Provider Aggregated Block
remarks:        ===========================================================
remarks:        TELEMACH - Network Operation Center
remarks:
remarks:        mail: noc@telemach.net
remarks:        phone: +386 1 51 88 600 or 51 88 630
remarks:        fax: +386 1 51 88 601
remarks:
remarks:        Please send abuse & spam notification to abuse@telemach.net
remarks:        ===========================================================
origin:         AS3212
mnt-routes:     TELEMACH-MNT
mnt-by:         TELEMACH-MNT
notify:         ripe@telemach.net
created:        2016-03-01T07:14:34Z
last-modified:  2018-01-15T13:41:08Z
source:         RIPE
remarks:        ****************************
remarks:        * THIS OBJECT IS MODIFIED
remarks:        * Please note that all data that is generally regarded as personal
remarks:        * data has been removed from this object.
remarks:        * To view the original object, please query the RIPE Database at:
remarks:        * http://www.ripe.net/whois
remarks:        ****************************
rpki-ov-state:  valid

route:          84.52.128.0/18
descr:          TELEMACH, Provider Aggregated Block
remarks:        ===========================================================
remarks:        TELEMACH - Network Operation Center
remarks:
remarks:        mail:  noc@telemach.net
remarks:        phone: +386 1 51 88 600 or 51 88 630
remarks:        fax:   +386 1 51 88 601
remarks:
remarks:        Please send abuse & spam notification to abuse@telemach.net
remarks:        ===========================================================
origin:         AS3212
mnt-by:         TELEMACH-MNT
notify:         ripe@telemach.net
created:        2015-12-31T08:43:43Z
last-modified:  2018-01-16T08:55:14Z
source:         RIPE
remarks:        ****************************
remarks:        * THIS OBJECT IS MODIFIED
remarks:        * Please note that all data that is generally regarded as personal
remarks:        * data has been removed from this object.
remarks:        * To view the original object, please query the RIPE Database at:
remarks:        * http://www.ripe.net/whois
remarks:        ****************************
rpki-ov-state:  valid

route:          86.58.0.0/17
descr:          TELEMACH, Provider Aggregated Block
remarks:        ===========================================================
remarks:        TELEMACH - Network Operation Center
remarks:
remarks:        mail: noc@telemach.net
remarks:        phone: +386 1 51 88 600 or 51 88 630
remarks:        fax: +386 1 51 88 601
remarks:
remarks:        Please send abuse & spam notification to abuse@telemach.net
remarks:        ===========================================================
origin:         AS3212
mnt-routes:     TELEMACH-MNT
mnt-by:         TELEMACH-MNT
created:        2005-04-26T11:25:31Z
last-modified:  2018-01-15T08:36:32Z
source:         RIPE
remarks:        ****************************
remarks:        * THIS OBJECT IS MODIFIED
remarks:        * Please note that all data that is generally regarded as personal
remarks:        * data has been removed from this object.
remarks:        * To view the original object, please query the RIPE Database at:
remarks:        * http://www.ripe.net/whois
remarks:        ****************************
rpki-ov-state:  valid

route:          87.119.128.0/19
descr:          TELEMACH, Provider Aggregated Block
remarks:        ===========================================================
remarks:        TELEMACH - Network Operation Center
remarks:
remarks:        mail:  noc@telemach.net
remarks:        phone: +386 1 51 88 600 or 51 88 630
remarks:        fax:   +386 1 51 88 601
remarks:
remarks:        Please send abuse & spam notification to abuse@telemach.net
remarks:        ===========================================================
notify:         ripe@telemach.net
origin:         AS3212
mnt-by:         TELEMACH-MNT
created:        2015-10-19T07:33:09Z
last-modified:  2018-01-16T08:59:08Z
source:         RIPE
remarks:        ****************************
remarks:        * THIS OBJECT IS MODIFIED
remarks:        * Please note that all data that is generally regarded as personal
remarks:        * data has been removed from this object.
remarks:        * To view the original object, please query the RIPE Database at:
remarks:        * http://www.ripe.net/whois
remarks:        ****************************
rpki-ov-state:  valid

route:          91.132.208.0/22
descr:          TELEMACH, Provider Aggregated Block
remarks:        ===========================================================
remarks:        TELEMACH - Network Operation Center
remarks:
remarks:        mail: noc@telemach.net
remarks:        phone: +386 1 51 88 600 or 51 88 630
remarks:        fax: +386 1 51 88 601
remarks:
remarks:        Please send abuse & spam notification to abuse@telemach.net
remarks:        ===========================================================
origin:         AS3212
mnt-by:         TELEMACH-MNT
created:        2022-02-17T12:09:40Z
last-modified:  2022-02-17T12:18:03Z
source:         RIPE
remarks:        ****************************
remarks:        * THIS OBJECT IS MODIFIED
remarks:        * Please note that all data that is generally regarded as personal
remarks:        * data has been removed from this object.
remarks:        * To view the original object, please query the RIPE Database at:
remarks:        * http://www.ripe.net/whois
remarks:        ****************************
rpki-ov-state:  valid

route:          91.185.192.0/19
descr:          TELEMACH, Provider Aggregated Block
remarks:        ===========================================================
remarks:        TELEMACH - Network Operation Center
remarks:
remarks:        mail:  noc@telemach.net
remarks:        phone: +386 1 51 88 600 or 51 88 630
remarks:        fax:   +386 1 51 88 601
remarks:
remarks:        Please send abuse & spam notification to abuse@telemach.net
remarks:        ===========================================================
origin:         AS3212
mnt-by:         TELEMACH-MNT
notify:         ripe@telemach.net
created:        2015-10-19T07:39:52Z
last-modified:  2018-01-17T12:45:17Z
source:         RIPE
remarks:        ****************************
remarks:        * THIS OBJECT IS MODIFIED
remarks:        * Please note that all data that is generally regarded as personal
remarks:        * data has been removed from this object.
remarks:        * To view the original object, please query the RIPE Database at:
remarks:        * http://www.ripe.net/whois
remarks:        ****************************
rpki-ov-state:  valid

route:          91.237.132.0/22
descr:          TELEMACH, Provider Aggregated Block
remarks:        ===========================================================
remarks:        TELEMACH - Network Operation Center
remarks:
remarks:        mail:  noc@telemach.net
remarks:        phone: +386 1 51 88 600 or 51 88 630
remarks:        fax:   +386 1 51 88 601
remarks:
remarks:        Please send abuse & spam notification to abuse@telemach.net
remarks:        ===========================================================
origin:         AS3212
mnt-by:         TELEMACH-MNT
notify:         ripe@telemach.net
created:        2017-11-27T12:38:30Z
last-modified:  2018-01-16T12:52:20Z
source:         RIPE
remarks:        ****************************
remarks:        * THIS OBJECT IS MODIFIED
remarks:        * Please note that all data that is generally regarded as personal
remarks:        * data has been removed from this object.
remarks:        * To view the original object, please query the RIPE Database at:
remarks:        * http://www.ripe.net/whois
remarks:        ****************************
rpki-ov-state:  valid

route:          92.53.128.0/19
descr:          TELEMACH, Provider Aggregated Block
remarks:        ===========================================================
remarks:        TELEMACH - Network Operation Center
remarks:
remarks:        mail: noc@telemach.net
remarks:        phone: +386 1 51 88 600 or 51 88 630
remarks:        fax: +386 1 51 88 601
remarks:
remarks:        Please send abuse & spam notification to abuse@telemach.net
remarks:        ===========================================================
origin:         AS3212
mnt-by:         TELEMACH-MNT
created:        2022-01-11T12:35:53Z
last-modified:  2022-01-11T12:37:04Z
source:         RIPE
remarks:        ****************************
remarks:        * THIS OBJECT IS MODIFIED
remarks:        * Please note that all data that is generally regarded as personal
remarks:        * data has been removed from this object.
remarks:        * To view the original object, please query the RIPE Database at:
remarks:        * http://www.ripe.net/whois
remarks:        ****************************
rpki-ov-state:  valid

route:          92.63.16.0/20
descr:          TELEMACH, Provider Aggregated Block
remarks:        ===========================================================
remarks:        TELEMACH - Network Operation Center
remarks:
remarks:        mail: noc@telemach.net
remarks:        phone: +386 1 51 88 600 or 51 88 630
remarks:        fax: +386 1 51 88 601
remarks:
remarks:        Please send abuse & spam notification to abuse@telemach.net
remarks:        ===========================================================
origin:         AS3212
mnt-routes:     TELEMACH-MNT
mnt-by:         TELEMACH-MNT
notify:         ripe@telemach.net
created:        2016-03-01T07:23:11Z
last-modified:  2018-01-15T14:07:52Z
source:         RIPE
remarks:        ****************************
remarks:        * THIS OBJECT IS MODIFIED
remarks:        * Please note that all data that is generally regarded as personal
remarks:        * data has been removed from this object.
remarks:        * To view the original object, please query the RIPE Database at:
remarks:        * http://www.ripe.net/whois
remarks:        ****************************
rpki-ov-state:  valid

route:          94.140.64.0/19
descr:          TELEMACH, Provider Aggregated Block
remarks:        ===========================================================
remarks:        TELEMACH - Network Operation Center
remarks:
remarks:        mail:  noc@telemach.net
remarks:        phone: +386 1 51 88 600 or 51 88 630
remarks:        fax:   +386 1 51 88 601
remarks:
remarks:        Please send abuse & spam notification to abuse@telemach.net
remarks:        ===========================================================
origin:         AS3212
mnt-by:         TELEMACH-MNT
notify:         ripe@telemach.net
created:        2015-12-31T08:46:05Z
last-modified:  2018-01-16T09:11:55Z
source:         RIPE
remarks:        ****************************
remarks:        * THIS OBJECT IS MODIFIED
remarks:        * Please note that all data that is generally regarded as personal
remarks:        * data has been removed from this object.
remarks:        * To view the original object, please query the RIPE Database at:
remarks:        * http://www.ripe.net/whois
remarks:        ****************************
rpki-ov-state:  valid

route:          95.143.144.0/20
descr:          TELEMACH, Provider Aggregated Block
remarks:        ===========================================================
remarks:        TELEMACH - Network Operation Center
remarks:
remarks:        mail: noc@telemach.net
remarks:        phone: +386 1 51 88 600 or 51 88 630
remarks:        fax: +386 1 51 88 601
remarks:
remarks:        Please send abuse & spam notification to abuse@telemach.net
remarks:        ===========================================================
origin:         AS3212
mnt-by:         TELEMACH-MNT
created:        2023-08-23T08:23:30Z
last-modified:  2023-08-23T08:23:30Z
source:         RIPE
remarks:        ****************************
remarks:        * THIS OBJECT IS MODIFIED
remarks:        * Please note that all data that is generally regarded as personal
remarks:        * data has been removed from this object.
remarks:        * To view the original object, please query the RIPE Database at:
remarks:        * http://www.ripe.net/whois
remarks:        ****************************
rpki-ov-state:  valid

route:          176.57.92.0/22
descr:          TELEMACH, Provider Aggregated Block
remarks:        ===========================================================
remarks:        TELEMACH - Network Operation Center
remarks:
remarks:        mail:  noc@telemach.net
remarks:        phone: +386 1 51 88 600 or 51 88 630
remarks:        fax:   +386 1 51 88 601
remarks:
remarks:        Please send abuse & spam notification to abuse@telemach.net
remarks:        ===========================================================
origin:         AS3212
mnt-by:         TELEMACH-MNT
notify:         ripe@telemach.net
created:        2018-01-16T13:04:56Z
last-modified:  2018-01-16T13:04:56Z
source:         RIPE
remarks:        ****************************
remarks:        * THIS OBJECT IS MODIFIED
remarks:        * Please note that all data that is generally regarded as personal
remarks:        * data has been removed from this object.
remarks:        * To view the original object, please query the RIPE Database at:
remarks:        * http://www.ripe.net/whois
remarks:        ****************************
rpki-ov-state:  valid

route:          176.76.0.0/16
descr:          TELEMACH, Provider Aggregated Block
remarks:        ===========================================================
remarks:        TELEMACH - Network Operation Center
remarks:
remarks:        mail:  noc@telemach.net
remarks:        phone: +386 1 51 88 600 or 51 88 630
remarks:        fax:   +386 1 51 88 601
remarks:
remarks:        Please send abuse & spam notification to abuse@telemach.net
remarks:        ===========================================================
origin:         AS3212
notify:         ripe@telemach.net
mnt-by:         TELEMACH-MNT
created:        2015-10-19T07:38:09Z
last-modified:  2018-01-16T09:13:15Z
source:         RIPE
remarks:        ****************************
remarks:        * THIS OBJECT IS MODIFIED
remarks:        * Please note that all data that is generally regarded as personal
remarks:        * data has been removed from this object.
remarks:        * To view the original object, please query the RIPE Database at:
remarks:        * http://www.ripe.net/whois
remarks:        ****************************
rpki-ov-state:  valid

route:          178.79.64.0/18
descr:          TELEMACH, Provider Aggregated Block
remarks:        ===========================================================
remarks:        TELEMACH - Network Operation Center
remarks:
remarks:        mail: noc@telemach.net
remarks:        phone: +386 1 51 88 600 or 51 88 630
remarks:        fax: +386 1 51 88 601
remarks:
remarks:        Please send abuse & spam notification to abuse@telemach.net
remarks:        ===========================================================
origin:         AS3212
mnt-routes:     TELEMACH-MNT
mnt-by:         TELEMACH-MNT
notify:         ripe@telemach.net
created:        2010-05-11T08:37:03Z
last-modified:  2018-01-15T08:41:07Z
source:         RIPE
remarks:        ****************************
remarks:        * THIS OBJECT IS MODIFIED
remarks:        * Please note that all data that is generally regarded as personal
remarks:        * data has been removed from this object.
remarks:        * To view the original object, please query the RIPE Database at:
remarks:        * http://www.ripe.net/whois
remarks:        ****************************
rpki-ov-state:  valid

route:          185.30.136.0/22
descr:          TELEMACH, Provider Aggregated Block
remarks:        ===========================================================
remarks:        TELEMACH - Network Operation Center
remarks:
remarks:        mail:  noc@telemach.net
remarks:        phone: +386 1 51 88 600 or 51 88 630
remarks:        fax:   +386 1 51 88 601
remarks:
remarks:        Please send abuse & spam notification to abuse@telemach.net
remarks:        ===========================================================
origin:         AS3212
mnt-by:         TELEMACH-MNT
created:        2020-11-23T12:36:53Z
last-modified:  2020-11-23T12:36:53Z
source:         RIPE
remarks:        ****************************
remarks:        * THIS OBJECT IS MODIFIED
remarks:        * Please note that all data that is generally regarded as personal
remarks:        * data has been removed from this object.
remarks:        * To view the original object, please query the RIPE Database at:
remarks:        * http://www.ripe.net/whois
remarks:        ****************************
rpki-ov-state:  valid

route:          185.65.228.0/22
descr:          TELEMACH, Provider Aggregated Block
remarks:        ===========================================================
remarks:        TELEMACH - Network Operation Center
remarks:
remarks:        mail: noc@telemach.net
remarks:        phone: +386 1 51 88 600 or 51 88 630
remarks:        fax: +386 1 51 88 601
remarks:
remarks:        Please send abuse & spam notification to abuse@telemach.net
remarks:        ===========================================================
origin:         AS3212
mnt-routes:     TELEMACH-MNT
mnt-by:         TELEMACH-MNT
notify:         ripe@telemach.net
created:        2018-01-15T14:13:33Z
last-modified:  2018-01-15T14:13:33Z
source:         RIPE
remarks:        ****************************
remarks:        * THIS OBJECT IS MODIFIED
remarks:        * Please note that all data that is generally regarded as personal
remarks:        * data has been removed from this object.
remarks:        * To view the original object, please query the RIPE Database at:
remarks:        * http://www.ripe.net/whois
remarks:        ****************************
rpki-ov-state:  valid

route:          185.66.148.0/22
descr:          TELEMACH, Provider Aggregated Block
remarks:        ===========================================================
remarks:        TELEMACH - Network Operation Center
remarks:
remarks:        mail:  noc@telemach.net
remarks:        phone: +386 1 51 88 600 or 51 88 630
remarks:        fax:   +386 1 51 88 601
remarks:
remarks:        Please send abuse & spam notification to abuse@telemach.net
remarks:        ===========================================================
origin:         AS3212
mnt-by:         TELEMACH-MNT
notify:         ripe@telemach.net
created:        2015-12-31T08:50:48Z
last-modified:  2018-01-16T09:15:30Z
source:         RIPE
remarks:        ****************************
remarks:        * THIS OBJECT IS MODIFIED
remarks:        * Please note that all data that is generally regarded as personal
remarks:        * data has been removed from this object.
remarks:        * To view the original object, please query the RIPE Database at:
remarks:        * http://www.ripe.net/whois
remarks:        ****************************
rpki-ov-state:  valid

route:          185.72.60.0/22
descr:          TELEMACH, Provider Aggregated Block
remarks:        ===========================================================
remarks:        TELEMACH - Network Operation Center
remarks:
remarks:        mail: noc@telemach.net
remarks:        phone: +386 1 51 88 600 or 51 88 630
remarks:        fax: +386 1 51 88 601
remarks:
remarks:        Please send abuse & spam notification to abuse@telemach.net
remarks:        ===========================================================
origin:         AS3212
mnt-routes:     TELEMACH-MNT
mnt-by:         TELEMACH-MNT
notify:         ripe@telemach.net
created:        2014-10-06T09:26:57Z
last-modified:  2018-01-15T08:51:31Z
source:         RIPE
remarks:        ****************************
remarks:        * THIS OBJECT IS MODIFIED
remarks:        * Please note that all data that is generally regarded as personal
remarks:        * data has been removed from this object.
remarks:        * To view the original object, please query the RIPE Database at:
remarks:        * http://www.ripe.net/whois
remarks:        ****************************
rpki-ov-state:  valid

route:          185.72.60.0/24
descr:          TELEMACH, Provider Aggregated Block
remarks:        ===========================================================
remarks:        TELEMACH - Network Operation Center
remarks:
remarks:        mail: noc@telemach.net
remarks:        phone: +386 1 51 88 600 or 51 88 630
remarks:        fax: +386 1 51 88 601
remarks:
remarks:        Please send abuse & spam notification to abuse@telemach.net
remarks:        ===========================================================
origin:         AS3212
mnt-routes:     TELEMACH-MNT
mnt-by:         TELEMACH-MNT
notify:         ripe@telemach.net
created:        2016-11-14T22:56:11Z
last-modified:  2018-01-15T08:52:38Z
source:         RIPE
remarks:        ****************************
remarks:        * THIS OBJECT IS MODIFIED
remarks:        * Please note that all data that is generally regarded as personal
remarks:        * data has been removed from this object.
remarks:        * To view the original object, please query the RIPE Database at:
remarks:        * http://www.ripe.net/whois
remarks:        ****************************
rpki-ov-state:  valid

route:          185.79.228.0/22
descr:          TELEMACH, Provider Aggregated Block
remarks:        ===========================================================
remarks:        TELEMACH - Network Operation Center
remarks:
remarks:        mail: noc@telemach.net
remarks:        phone: +386 1 51 88 600 or 51 88 630
remarks:        fax: +386 1 51 88 601
remarks:
remarks:        Please send abuse & spam notification to abuse@telemach.net
remarks:        ===========================================================
origin:         AS3212
mnt-by:         TELEMACH-MNT
notify:         ripe@telemach.net
created:        2017-04-21T09:09:44Z
last-modified:  2018-01-16T10:16:49Z
source:         RIPE
remarks:        ****************************
remarks:        * THIS OBJECT IS MODIFIED
remarks:        * Please note that all data that is generally regarded as personal
remarks:        * data has been removed from this object.
remarks:        * To view the original object, please query the RIPE Database at:
remarks:        * http://www.ripe.net/whois
remarks:        ****************************
rpki-ov-state:  valid

route:          185.85.148.0/22
descr:          TELEMACH, Provider Aggregated Block
remarks:        ===========================================================
remarks:        TELEMACH - Network Operation Center
remarks:
remarks:        mail:  noc@telemach.net
remarks:        phone: +386 1 51 88 600 or 51 88 630
remarks:        fax:   +386 1 51 88 601
remarks:
remarks:        Please send abuse & spam notification to abuse@telemach.net
remarks:        ===========================================================
origin:         AS3212
mnt-by:         TELEMACH-MNT
notify:         ripe@telemach.net
created:        2017-11-27T12:38:51Z
last-modified:  2018-01-16T12:56:05Z
source:         RIPE
remarks:        ****************************
remarks:        * THIS OBJECT IS MODIFIED
remarks:        * Please note that all data that is generally regarded as personal
remarks:        * data has been removed from this object.
remarks:        * To view the original object, please query the RIPE Database at:
remarks:        * http://www.ripe.net/whois
remarks:        ****************************
rpki-ov-state:  valid

route:          185.97.68.0/22
descr:          TELEMACH, Provider Aggregated Block
remarks:        ===========================================================
remarks:        TELEMACH - Network Operation Center
remarks:
remarks:        mail:  noc@telemach.net
remarks:        phone: +386 1 51 88 600 or 51 88 630
remarks:        fax:   +386 1 51 88 601
remarks:
remarks:        Please send abuse & spam notification to abuse@telemach.net
remarks:        ===========================================================
origin:         AS3212
notify:         ripe@telemach.net
mnt-by:         TELEMACH-MNT
created:        2015-09-30T11:29:01Z
last-modified:  2018-01-16T09:22:01Z
source:         RIPE
remarks:        ****************************
remarks:        * THIS OBJECT IS MODIFIED
remarks:        * Please note that all data that is generally regarded as personal
remarks:        * data has been removed from this object.
remarks:        * To view the original object, please query the RIPE Database at:
remarks:        * http://www.ripe.net/whois
remarks:        ****************************
rpki-ov-state:  valid

route:          193.9.19.0/24
descr:          TELEMACH, Provider Aggregated Block
remarks:        ===========================================================
remarks:        TELEMACH - Network Operation Center
remarks:
remarks:        mail: noc@telemach.net
remarks:        phone: +386 1 51 88 600 or 51 88 630
remarks:        fax: +386 1 51 88 601
remarks:
remarks:        Please send abuse & spam notification to abuse@telemach.net
remarks:        ===========================================================
origin:         AS3212
notify:         ripe@telemach.net
mnt-lower:      TELEMACH-MNT
mnt-routes:     TELEMACH-MNT
mnt-by:         TELEMACH-MNT
created:        2017-04-07T12:38:18Z
last-modified:  2018-01-26T06:54:07Z
source:         RIPE
remarks:        ****************************
remarks:        * THIS OBJECT IS MODIFIED
remarks:        * Please note that all data that is generally regarded as personal
remarks:        * data has been removed from this object.
remarks:        * To view the original object, please query the RIPE Database at:
remarks:        * http://www.ripe.net/whois
remarks:        ****************************
rpki-ov-state:  valid

route:          193.111.220.0/22
descr:          TELEMACH, Provider Aggregated Block
remarks:        ===========================================================
remarks:        TELEMACH - Network Operation Center
remarks:
remarks:        mail:  noc@telemach.net
remarks:        phone: +386 1 51 88 600 or 51 88 630
remarks:        fax:   +386 1 51 88 601
remarks:
remarks:        Please send abuse & spam notification to abuse@telemach.net
remarks:        ===========================================================
origin:         AS3212
mnt-by:         TELEMACH-MNT
created:        2015-10-19T07:33:23Z
last-modified:  2018-01-17T12:20:47Z
source:         RIPE
remarks:        ****************************
remarks:        * THIS OBJECT IS MODIFIED
remarks:        * Please note that all data that is generally regarded as personal
remarks:        * data has been removed from this object.
remarks:        * To view the original object, please query the RIPE Database at:
remarks:        * http://www.ripe.net/whois
remarks:        ****************************
rpki-ov-state:  valid

route:          194.152.0.0/19
descr:          TELEMACH, Provider Aggregated Block
remarks:        ===========================================================
remarks:        TELEMACH - Network Operation Center
remarks:
remarks:        mail: noc@telemach.net
remarks:        phone: +386 1 51 88 600 or 51 88 630
remarks:        fax: +386 1 51 88 601
remarks:
remarks:        Please send abuse & spam notification to abuse@telemach.net
remarks:        ===========================================================
origin:         AS3212
mnt-routes:     TELEMACH-MNT
mnt-by:         TELEMACH-MNT
notify:         ripe@telemach.net
created:        1970-01-01T00:00:00Z
last-modified:  2018-01-16T11:21:47Z
source:         RIPE
remarks:        ****************************
remarks:        * THIS OBJECT IS MODIFIED
remarks:        * Please note that all data that is generally regarded as personal
remarks:        * data has been removed from this object.
remarks:        * To view the original object, please query the RIPE Database at:
remarks:        * http://www.ripe.net/whois
remarks:        ****************************
rpki-ov-state:  valid

route:          195.47.228.0/24
descr:          TELEMACH, Provider Aggregated Block
remarks:        ===========================================================
remarks:        TELEMACH - Network Operation Center
remarks:
remarks:        mail: noc@telemach.net
remarks:        phone: +386 1 51 88 600 or 51 88 630
remarks:        fax: +386 1 51 88 601
remarks:
remarks:        Please send abuse & spam notification to abuse@telemach.net
remarks:        ===========================================================
origin:         AS3212
mnt-by:         TELEMACH-MNT
created:        2020-03-11T12:40:31Z
last-modified:  2020-03-11T12:40:31Z
source:         RIPE
remarks:        ****************************
remarks:        * THIS OBJECT IS MODIFIED
remarks:        * Please note that all data that is generally regarded as personal
remarks:        * data has been removed from this object.
remarks:        * To view the original object, please query the RIPE Database at:
remarks:        * http://www.ripe.net/whois
remarks:        ****************************
rpki-ov-state:  valid

route:          212.85.160.0/19
descr:          TELEMACH, Provider Aggregated Block
origin:         AS3212
remarks:        ===========================================================
remarks:        TELEMACH - Network Operation Center
remarks:
remarks:        mail:  noc@telemach.net
remarks:        phone: +386 1 51 88 600 or 51 88 630
remarks:        fax:   +386 1 51 88 601
remarks:
remarks:        Please send abuse & spam notification to abuse@telemach.net
remarks:        ===========================================================
notify:         ripe@telemach.net
mnt-by:         TELEMACH-MNT
created:        2015-12-31T08:48:09Z
last-modified:  2018-01-26T06:53:33Z
source:         RIPE
remarks:        ****************************
remarks:        * THIS OBJECT IS MODIFIED
remarks:        * Please note that all data that is generally regarded as personal
remarks:        * data has been removed from this object.
remarks:        * To view the original object, please query the RIPE Database at:
remarks:        * http://www.ripe.net/whois
remarks:        ****************************
rpki-ov-state:  valid

route:          213.143.64.0/19
descr:          TELEMACH, Provider Aggregated Block
remarks:        ===========================================================
remarks:        TELEMACH - Network Operation Center
remarks:
remarks:        mail:  noc@telemach.net
remarks:        phone: +386 1 51 88 600 or 51 88 630
remarks:        fax:   +386 1 51 88 601
remarks:
remarks:        Please send abuse & spam notification to abuse@telemach.net
remarks:        ===========================================================
origin:         AS3212
mnt-by:         TELEMACH-MNT
notify:         ripe@telemach.net
created:        2015-12-31T08:42:01Z
last-modified:  2018-01-16T09:40:18Z
source:         RIPE
remarks:        ****************************
remarks:        * THIS OBJECT IS MODIFIED
remarks:        * Please note that all data that is generally regarded as personal
remarks:        * data has been removed from this object.
remarks:        * To view the original object, please query the RIPE Database at:
remarks:        * http://www.ripe.net/whois
remarks:        ****************************
rpki-ov-state:  valid

route:          213.161.0.0/19
descr:          TELEMACH, Provider Aggregated Block
remarks:        ===========================================================
remarks:        TELEMACH - Network Operation Center
remarks:
remarks:        mail: noc@telemach.net
remarks:        phone: +386 1 51 88 600 or 51 88 630
remarks:        fax: +386 1 51 88 601
remarks:
remarks:        Please send abuse & spam notification to abuse@telemach.net
remarks:        ===========================================================
origin:         AS3212
mnt-routes:     TELEMACH-MNT
mnt-by:         TELEMACH-MNT
created:        2004-06-28T08:49:47Z
last-modified:  2018-01-15T08:55:50Z
source:         RIPE
remarks:        ****************************
remarks:        * THIS OBJECT IS MODIFIED
remarks:        * Please note that all data that is generally regarded as personal
remarks:        * data has been removed from this object.
remarks:        * To view the original object, please query the RIPE Database at:
remarks:        * http://www.ripe.net/whois
remarks:        ****************************
rpki-ov-state:  valid

route:          213.172.224.0/19
descr:          TELEMACH, Provider Aggregated Block
remarks:        ===========================================================
remarks:        TELEMACH - Network Operation Center
remarks:
remarks:        mail:  noc@telemach.net
remarks:        phone: +386 1 51 88 600 or 51 88 630
remarks:        fax:   +386 1 51 88 601
remarks:
remarks:        Please send abuse & spam notification to abuse@telemach.net
remarks:        ===========================================================
origin:         AS3212
notify:         ripe@telemach.net
mnt-by:         TELEMACH-MNT
created:        2015-10-19T07:33:38Z
last-modified:  2018-01-16T09:45:18Z
source:         RIPE
remarks:        ****************************
remarks:        * THIS OBJECT IS MODIFIED
remarks:        * Please note that all data that is generally regarded as personal
remarks:        * data has been removed from this object.
remarks:        * To view the original object, please query the RIPE Database at:
remarks:        * http://www.ripe.net/whois
remarks:        ****************************
rpki-ov-state:  valid

route:          217.72.64.0/19
descr:          TELEMACH, Provider Aggregated Block
remarks:        ===========================================================
remarks:        TELEMACH - Network Operation Center
remarks:
remarks:        mail: noc@telemach.net
remarks:        phone: +386 1 51 88 600 or 51 88 630
remarks:        fax: +386 1 51 88 601
remarks:
remarks:        Please send abuse & spam notification to abuse@telemach.net
remarks:        ===========================================================
origin:         AS3212
notify:         ripe@telemach.net
mnt-by:         TELEMACH-MNT
created:        2015-10-19T07:28:15Z
last-modified:  2018-01-16T09:59:03Z
source:         RIPE
remarks:        ****************************
remarks:        * THIS OBJECT IS MODIFIED
remarks:        * Please note that all data that is generally regarded as personal
remarks:        * data has been removed from this object.
remarks:        * To view the original object, please query the RIPE Database at:
remarks:        * http://www.ripe.net/whois
remarks:        ****************************
rpki-ov-state:  valid

route6:         2001:1688::/29
descr:          TELEMACH, Provider Aggregated Block
remarks:        ===========================================================
remarks:        TELEMACH - Network Operation Center
remarks:
remarks:        mail:  noc@telemach.net
remarks:        phone: +386 1 51 88 600 or 51 88 630
remarks:        fax:   +386 1 51 88 601
remarks:
remarks:        Please send abuse & spam notification to abuse@telemach.net
remarks:        ===========================================================
origin:         AS3212
mnt-by:         TELEMACH-MNT
created:        2013-04-16T08:22:48Z
last-modified:  2018-01-17T12:53:22Z
source:         RIPE
remarks:        ****************************
remarks:        * THIS OBJECT IS MODIFIED
remarks:        * Please note that all data that is generally regarded as personal
remarks:        * data has been removed from this object.
remarks:        * To view the original object, please query the RIPE Database at:
remarks:        * http://www.ripe.net/whois
remarks:        ****************************
rpki-ov-state:  valid

route6:         2a00:fc0::/32
descr:          TELEMACH, Provider Aggregated Block
remarks:        ===========================================================
remarks:        TELEMACH - Network Operation Center
remarks:
remarks:        mail: noc@telemach.net
remarks:        phone: +386 1 51 88 600 or 51 88 630
remarks:        fax: +386 1 51 88 601
remarks:
remarks:        Please send abuse & spam notification to abuse@telemach.net
remarks:        ===========================================================
origin:         AS3212
mnt-by:         TELEMACH-MNT
created:        2015-10-19T07:34:47Z
last-modified:  2018-01-17T12:20:05Z
source:         RIPE
remarks:        ****************************
remarks:        * THIS OBJECT IS MODIFIED
remarks:        * Please note that all data that is generally regarded as personal
remarks:        * data has been removed from this object.
remarks:        * To view the original object, please query the RIPE Database at:
remarks:        * http://www.ripe.net/whois
remarks:        ****************************
rpki-ov-state:  valid

route6:         2a00:13d8::/29
descr:          Telemach d.o.o.
descr:          For abuse please contact abuse[at]telemach.si
origin:         AS3212
mnt-by:         TELEMACH-MNT
created:        2016-03-22T09:07:08Z
last-modified:  2016-03-22T09:10:35Z
source:         RIPE
mnt-routes:     TELEMACH-MNT
remarks:        ****************************
remarks:        * THIS OBJECT IS MODIFIED
remarks:        * Please note that all data that is generally regarded as personal
remarks:        * data has been removed from this object.
remarks:        * To view the original object, please query the RIPE Database at:
remarks:        * http://www.ripe.net/whois
remarks:        ****************************
rpki-ov-state:  valid

route6:         2a02:840::/32
descr:          TELEMACH, Provider Aggregated Block
remarks:        ===========================================================
remarks:        TELEMACH - Network Operation Center
remarks:
remarks:        mail:  noc@telemach.net
remarks:        phone: +386 1 51 88 600 or 51 88 630
remarks:        fax:   +386 1 51 88 601
remarks:
remarks:        Please send abuse & spam notification to abuse@telemach.net
remarks:        ===========================================================
origin:         AS3212
mnt-by:         TELEMACH-MNT
created:        2015-10-19T07:41:03Z
last-modified:  2018-01-17T12:20:22Z
source:         RIPE
remarks:        ****************************
remarks:        * THIS OBJECT IS MODIFIED
remarks:        * Please note that all data that is generally regarded as personal
remarks:        * data has been removed from this object.
remarks:        * To view the original object, please query the RIPE Database at:
remarks:        * http://www.ripe.net/whois
remarks:        ****************************
rpki-ov-state:  valid

route6:         2a05:acc0::/29
descr:          TELEMACH, Provider Aggregated Block
remarks:        ===========================================================
remarks:        TELEMACH - Network Operation Center
remarks:
remarks:        mail:  noc@telemach.net
remarks:        phone: +386 1 51 88 600 or 51 88 630
remarks:        fax:   +386 1 51 88 601
remarks:
remarks:        Please send abuse & spam notification to abuse@telemach.net
remarks:        ===========================================================
origin:         AS3212
mnt-by:         TELEMACH-MNT
created:        2018-06-06T08:08:22Z
last-modified:  2018-06-06T08:08:22Z
source:         RIPE
remarks:        ****************************
remarks:        * THIS OBJECT IS MODIFIED
remarks:        * Please note that all data that is generally regarded as personal
remarks:        * data has been removed from this object.
remarks:        * To view the original object, please query the RIPE Database at:
remarks:        * http://www.ripe.net/whois
remarks:        ****************************
rpki-ov-state:  valid


